output/1_3PAS_1/Master_SA_06_1_3PAS_1.dss
clear
Redirect "CircuitoMT_1_3PAS_1.dss"
Redirect "Arranjos_1_3PAS_1.dss"
Redirect "Trecho_MT_1_3PAS_1.dss"
Redirect "Chave_MT_1_3PAS_1.dss"
Redirect "Trecho_BT_1_3PAS_1.dss"
Redirect "Ramais_BT_1_3PAS_1.dss"
Redirect "Transformador_MTBT_1_3PAS_1.dss"
Redirect "CurvaCarga_1_3PAS_1.dss"
Redirect "Cargas_BT_SA06_1_3PAS_1.dss"
Redirect "Cargas_IP_SA06_1_3PAS_1.dss"
Redirect "Cargas_MT_SA06_1_3PAS_1.dss"
Set mode = daily
Set tolerance = 0.0001
Set maxcontroliter = 10
!Set algorithm = newton
!Solve mode = direct
Solve
